data/scf/feeder3_qu_B.scf.json
{
  "version": "1.0",
  "type": "input",
  "is_batch": false,
  "attributes": {},
  "data": {
    "line": [
      {
        "c1": 0.0,
        "from_node": 1,
        "from_status": 1,
        "id": 4,
        "r1": 1.21,
        "tan1": 0.0,
        "to_node": 2,
        "to_status": 1,
        "x1": 9.68
      },
      {
        "c1": 0.0,
        "from_node": 2,
        "from_status": 1,
        "id": 5,
        "r1": 1.21,
        "tan1": 0.0,
        "to_node": 3,
        "to_status": 1,
        "x1": 9.68
      }
    ],
    "node": [
      {
        "id": 1,
        "u_rated": 110000.0
      },
      {
        "id": 2,
        "u_rated": 110000.0
      },
      {
        "id": 3,
        "u_rated": 110000.0
      }
    ],
    "sym_gen": [
      {
        "id": 7,
        "node": 1,
        "p_specified": 0.0,
        "q_specified": 0.0,
        "status": 1,
        "type": 0
      },
      {
        "id": 8,
        "node": 2,
        "p_specified": 1.0e7,
        "q_specified": 0.0,
        "status": 1,
        "type": 0
      }
    ],
    "sym_load": [
      {
        "id": 6,
        "node": 3,
        "p_specified": 8.0e7,
        "q_specified": 2.5e7,
        "status": 1,
        "type": 0
      }
    ]
  },
  "sparlectra": {
    "extra": {
      "1": {
        "bus_index": 1,
        "component_name": "Bus_1_110",
        "external_id": "#Bus_1_110#",
        "name": "B1",
        "node_type": "Slack"
      },
      "2": {
        "bus_index": 2,
        "component_name": "Bus_2_110",
        "external_id": "#Bus_2_110#",
        "name": "B2",
        "node_type": "PQ"
      },
      "3": {
        "bus_index": 3,
        "component_name": "Bus_3_110",
        "external_id": "#Bus_3_110#",
        "name": "B3",
        "node_type": "PQ"
      },
      "4": {
        "branch_index": 1,
        "external_id": "#B_ACL_110_1_2#1",
        "name": "B_ACL_110_1_2"
      },
      "5": {
        "branch_index": 2,
        "external_id": "#B_ACL_110_2_3#2",
        "name": "B_ACL_110_2_3"
      },
      "6": {
        "element_index": 3,
        "external_id": "#Ld_110.0\\_3\\_#3",
        "name": "Ld_110.0",
        "prosumption_class": "Consumption",
        "prosumption_type": "Load"
      },
      "7": {
        "element_index": 1,
        "external_id": "#Gen_110\\_1\\_#1",
        "name": "Gen_110",
        "prosumption_class": "Injection",
        "prosumption_type": "Generator",
        "reference_pri": true,
        "regulated": true,
        "vm_pu": 1.02
      },
      "8": {
        "element_index": 2,
        "external_id": "#Gen_110\\_2\\_#2",
        "name": "Gen_110",
        "prosumption_class": "Injection",
        "prosumption_type": "Generator",
        "qu_control": {
          "interpolation": "polynomial",
          "points": [
            [0.95, 0.3],
            [0.9727272727272728, 0.2],
            [1.0, 0.0],
            [1.018181818181818, -0.1],
            [1.05, -0.2]
          ],
          "qmax_mvar": 50.0,
          "qmin_mvar": -50.0
        }
      }
    },
    "format_version": "1.0",
    "meta": {
      "case_name": "feeder3_qu",
      "created_by": "Sparlectra 0.12.0",
      "f_nom": 50.0,
      "intended_calculations": ["power_flow"],
      "notes": "Three-bus feeder with a Q(U) machine at B2: five points from 104.5 kV/+30 MVAr to 115.5 kV/-20 MVAr, polynomial, +-50 MVAr. Same network and load as feeder3_hardpv_A; only the machine is modelled differently.",
      "s_base": 1.0e8,
      "source_format": "manual",
      "source_reference": "workshop_tour.ipynb chapter 5, build_qu(80.0, 25.0)"
    },
    "roles": {
      "slack": {
        "mode": "single",
        "nodes": [1]
      }
    }
  }
}
